test/test_files/validation_tests/case3120sp_resqlim.m
function mpc = case3120sp_resqlim
%CASE3120SP_RESQLIM

%% MATPOWER Case Format : Version 2
mpc.version = '2';

%%-----  Power Flow Data  -----%%
%% system MVA base
mpc.baseMVA = 100;

%% bus data
%	bus_i	type	Pd	Qd	Gs	Bs	area	Vm	Va	baseKV	zone	Vmax	Vmin
mpc.bus = [
	1	1	0	0	0	0	1	0.616988639	38.669354	220	1	1.11	0.95;
	2	1	0	0	0	0	1	3.42839733	87.6275545	220	1	1.11	0.95;
	3	1	0	0	0	0	1	0.00156394623	-137.119028	220	1	1.11	0.95;
	4	1	0	0	0	0	1	0.0364084819	-96.6619823	220	1	1.11	0.95;
	5	1	0	0	0	0	1	1.33902147	105.24053	220	1	1.11	0.95;
	6	1	0	0	0	0	1	0.858482684	-52.3272006	220	1	1.11	0.95;
	7	1	0	0	0	0	1	0.353969308	-143.824469	220	1	1.11	0.95;
	8	1	0	0	0	0	1	0.0068058411	-105.58386	220	1	1.11	0.95;
	9	1	0	0	0	0	1	0.0108201673	76.5444912	220	1	1.11	0.95;
	10	1	0	0	0	0	1	0.0154666867	-30.0073242	220	1	1.11	0.95;
	11	1	0	0	0	0	1	0.0712420742	-143.322297	400	1	1.05	0.95;
	12	1	0	0	0	0	1	0.00533353539	-151.56976	400	1	1.05	0.95;
	13	1	0	0	0	0	1	15.081726	26.4997163	400	1	1.05	0.95;
	14	1	0	0	0	0	1	0.276498769	182.440243	220	1	1.11	0.95;
	15	1	0	0	0	0	1	0.31216672	202.259771	220	1	1.11	0.95;
	16	1	0	0	0	0	1	0.57886142	-63.0304901	220	1	1.11	0.95;
	17	1	0	0	0	0	1	0.724754011	129.932544	220	1	1.11	0.95;
	18	1	0	0	0	0	1	0.00268242773	-74.6992755	400	1	1.05	0.95;
	19	1	0	0	0	0	1	0.00113711105	48.6348244	400	1	1.05	0.95;
	20	1	0	0	0	0	1	0.0366730864	49.9971147	400	1	1.05	0.95;
	21	1	0	0	0	0	1	0.0458436228	160.795231	400	1	1.05	0.95;
	22	1	10	20	0	0	1	0.0968467094	-87.4432964	220	1	1.11	0.95;
	23	1	10	20	0	0	1	0.0542322874	125.186196	220	1	1.11	0.95;
	24	1	0	0	0	0	1	0.395051679	-77.1665237	220	1	1.11	0.95;
	25	1	0	0	0	0	1	1.70563577	190.685121	220	1	1.11	0.95;
	26	1	0	0	0	0	1	0.0168140465	122.892833	220	1	1.11	0.95;
	27	1	0	0	0	0	1	0.0980828034	-41.3793895	220	1	1.11	0.95;
	28	1	0	0	0	0	1	0.000238468161	-139.714823	220	1	1.11	0.95;
	29	1	0	0	0	0	1	0.051647947	0.832114518	220	1	1.11	0.95;
	30	1	0	0	0	0	1	0.261748659	-140.572152	220	1	1.11	0.95;
	31	1	0	0	0	0	1	2.3100716e-06	58.5978642	220	1	1.11	0.95;
	32	1	0	0	0	0	1	0.116387208	-133.015198	400	1	1.05	0.95;
	33	1	0	0	0	0	1	0.0180766161	-33.305293	400	1	1.05	0.95;
	34	1	0	0	0	0	1	0.00611412369	-143.251977	400	1	1.05	0.95;
	35	1	32.16	52.07	0	0	1	11.9408659	-110.252169	220	1	1.11	0.95;
	36	1	46.36	92.07	0	0	1	1.03595059	-147.359559	220	1	1.11	0.95;
	37	1	60	120	0	0	1	0.14151379	0	400	1	1.05	0.95;
	38	1	60	120	0	0	1	0.898999397	53.0482731	400	1	1.05	0.95;
	39	1	0	0	0	0	1	0.0119756346	-125.81581	220	1	1.11	0.95;
	40	1	0	0	0	0	1	0.0485944255	-120.247172	220	1	1.11	0.95;
	41	1	0	0	0	0	1	0.619290546	-95.2999921	400	1	1.05	0.95;
	42	1	0	0	0	0	1	0.0310631596	175.257849	400	1	1.05	0.95;
	43	1	0	0	0	0	1	1.14234345	155.347353	220	1	1.11	0.95;
	44	1	0	0	0	0	1	0.123505631	45.4873578	400	1	1.05	0.95;
	45	1	0	0	0	0	1	0.544973679	-13.2446465	220	1	1.11	0.95;
	46	1	0	0	0	0	1	0.653502265	195.029544	220	1	1.11	0.95;
	47	1	0	0	0	0	1	4.06811893	-81.3973287	220	2	1.11	0.95;
	48	1	0	0	0	0	1	11.9728788	179.407642	220	2	1.11	0.95;
	49	1	0	0	0	0	1	0.010397946	97.7002301	220	2	1.11	0.95;
	50	1	0	0	0	0	1	0.762020329	-57.1121391	220	2	1.11	0.95;
	51	1	0	0	0	0	1	0.548430326	89.5069075	220	2	1.11	0.95;
	52	1	3.97	1	0	0	1	2.18779599	-129.479139	220	2	1.11	0.95;
	53	1	0	0	0	0	1	1.43843913	-62.4463671	220	2	1.11	0.95;
	54	1	0	0	0	0	1	6.75421385	163.067143	400	2	1.05	0.95;
	55	1	13	30	0	0	1	0.164207735	-141.694416	220	2	1.11	0.95;
	56	1	39.35	90.07	0	0	1	0.120467329	-38.1543578	220	2	1.11	0.95;
	57	1	26	60	0	0	1	0.160414036	166.871633	220	2	1.11	0.95;
	58	1	26	50	0	0	1	0.0819288457	-29.8218357	400	2	1.05	0.95;
	59	1	26	50	0	0	1	0.571693813	50.7154494	400	2	1.05	0.95;
	60	1	0	0	0	0	1	13.0642265	-33.9564335	220	2	1.11	0.95;
	61	1	0	0	0	0	1	0.0883201208	-13.4164943	400	2	1.05	0.95;
	62	1	0	0	0	0	1	0.717909114	-32.6888173	400	2	1.05	0.95;
	63	1	0	0	0	0	1	2.07355648	-97.4880041	400	2	1.05	0.95;
	64	1	0	0	0	0	1	0.220236774	-87.9349642	220	2	1.11	0.95;
	65	1	0	0	0	0	1	0.0207089307	-5.7866025	220	2	1.11	0.95;
	66	1	0	0	0	0	1	0.0216064494	-154.613112	400	2	1.05	0.95;
	67	1	0	0	0	0	1	0.00516583368	-24.3630317	400	2	1.05	0.95;
	68	1	13	30	0	0	1	0.114921	119.229902	220	2	1.11	0.95;
	69	1	26	60	0	0	1	0.180924293	137.527199	220	2	1.11	0.95;
	70	2	0	2.25	0	0	1	0.101268274	184.98841	400	2	1.05	0.95;
	71	1	26	60	0	0	1	0.705517593	189.672101	400	2	1.05	0.95;
	72	1	0	0	0	0	1	0.000290059071	88.9269624	220	2	1.11	0.95;
	73	1	0	0	0	0	1	0.168415168	135.484193	220	2	1.11	0.95;
	74	1	0	0	0	0	1	1.24523608	-17.7518604	220	2	1.11	0.95;
	75	1	0	0	0	0	1	1.22923925	-21.2150694	220	2	1.11	0.95;
	76	1	0	0	0	0	1	0.0284695502	-15.3765713	220	2	1.11	0.95;
	77	1	0	0	0	0	1	0.109187985	102.273634	220	2	1.11	0.95;
	78	1	0	0	0	0	1	6.66997993	44.4542273	400	2	1.05	0.95;
	79	1	0	0	0	0	1	6.84682451	-128.584808	400	2	1.05	0.95;
	80	1	0	0	0	0	1	6.23868261	-91.0491727	220	2	1.11	0.95;
	81	1	0	0	0	0	1	4.70883309	-153.477216	220	2	1.11	0.95;
	82	1	0	0	0	0	1	1.3449774	-65.489823	220	2	1.11	0.95;
	83	1	0	0	0	0	1	6.72473031	156.256872	220	3	1.11	0.95;
	84	1	6.41	2.01	0	0	1	9.11173426e-05	-19.5694631	220	3	1.11	0.95;
	85	1	13.89	5.02	0	0	1	0.0456597896	-129.247391	220	3	1.11	0.95;
	86	1	0	0	0	0	1	4.2160462e-05	134.920571	220	3	1.11	0.95;
	87	1	0	0	0	0	1	0.122809519	101.081166	220	3	1.11	0.95;
	88	1	0	0	0	0	1	0.0714975755	143.570687	220	3	1.11	0.95;
	89	1	0	0	0	0	1	0.0099115118	-24.1674638	220	3	1.11	0.95;
	90	1	0	0	0	0	1	0.121713138	-49.0388849	220	3	1.11	0.95;
	91	1	0	0	0	0	1	0.000773976574	80.5919171	220	3	1.11	0.95;
	92	1	28	70	0	0	1	0.752987723	-0.135278239	220	3	1.11	0.95;
	93	1	28	68	0	0	1	1.22630294	-19.8375759	220	3	1.11	0.95;
	94	1	2.78	1.91	0	0	1	0.0194824438	-18.4629791	220	3	1.11	0.95;
	95	1	0	0	0	0	1	0.0296035658	170.378957	220	3	1.11	0.95;
	96	1	32	142	0	0	1	0.2601848	5.89834362	400	3	1.05	0.95;
	97	1	0	0	0	0	1	0.207589416	80.1372231	400	3	1.05	0.95;
	98	1	0	0	0	0	1	2.33565434	80.4605473	220	3	1.11	0.95;
	99	1	0	0	0	0	1	0.214986555	21.0906008	220	3	1.11	0.95;
	100	1	0	0	0	0	1	0.0829182399	173.280093	220	3	1.11	0.95;
	101	1	38.8	-2.7	0	0	1	0.146210451	163.985357	220	3	1.11	0.95;
	102	1	0	0	0	0	1	0.377431396	108.684629	220	3	1.11	0.95;
	103	1	0	0	0	0	1	0.207093131	-17.9341117	220	3	1.11	0.95;
	104	1	0	0	0	0	1	0.0456979012	24.2361698	220	3	1.11	0.95;
	105	1	0	0	0	0	1	1.39114824	-78.8471589	220	3	1.11	0.95;
	106	1	0	0	0	0	1	1.25873781	100.222893	220	3	1.11	0.95;
	107	1	0	0	0	0	1	0.0640838031	-120.558039	400	3	1.05	0.95;
	108	1	0	0	0	0	1	0.0131124644	96.5317567	400	3	1.05	0.95;
	109	1	0	0	0	0	1	0.0320477998	188.339625	220	3	1.11	0.95;
	110	1	0	0	0	0	1	0.0146458153	80.2794955	220	3	1.11	0.95;
	111	1	0	0	0	0	1	1.14460752	84.384808	220	3	1.11	0.95;
	112	1	0	0	0	0	1	0.655740118	93.2213599	220	3	1.11	0.95;
	113	1	38.41	12.71	0	0	1	0.00345082289	156.608733	220	3	1.11	0.95;
	114	1	0	0	0	0	1	0.165798387	161.758036	220	3	1.11	0.95;
	115	1	0	0	0	0	1	0.143154955	171.580239	220	3	1.11	0.95;
	116	1	0	0	0	0	1	0.00983912121	160.874275	220	3	1.11	0.95;
	117	1	0	0	0	0	1	0.00828244794	-25.8875126	220	3	1.11	0.95;
	118	1	0	0	0	0	1	0.00824877367	-139.815934	220	3	1.11	0.95;
	119	1	10	44	0	0	1	0.199677597	-66.6243225	220	3	1.11	0.95;
	120	1	10	44	0	0	1	0.0568402843	54.1860687	220	3	1.11	0.95;
	121	1	7	18	0	0	1	1.50622364	173.831521	220	3	1.11	0.95;
	122	1	8	21	0	0	1	0.0276807295	140.763678	220	3	1.11	0.95;
	123	1	0	0	0	0	1	3.8252005	-72.7842786	220	3	1.11	0.95;
	124	1	59.4	11.61	0	0	1	5.05467894	82.9625293	220	3	1.11	0.95;
	125	1	0	0	0	0	1	0.55717591	-0.716153503	220	3	1.11	0.95;
	126	1	0	0	0	0	1	0.0228798145	92.9669155	220	3	1.11	0.95;
	127	1	0	0	0	0	1	0.0299872995	159.060636	220	3	1.11	0.95;
	128	1	0	0	0	0	1	0.0116824775	127.989967	220	3	1.11	0.95;
	129	1	0	0	0	0	1	0.00395698769	69.1793217	220	3	1.11	0.95;
	130	1	0	0	0	0	1	12.2019055	-36.2206723	400	3	1.05	0.95;
	131	1	0	0	0	0	1	12.2019055	-36.2206723	400	3	1.05	0.95;
	132	2	0	1.78	0	0	1	0.463100223	47.4859922	220	3	1.11	0.95;
	133	1	9	20	0	0	1	0.250000029	70.4120072	220	3	1.11	0.95;
	134	1	6	15	0	0	1	0.0844774466	-120.165791	220	3	1.11	0.95;
	135	1	0	0	0	0	1	0.176399436	152.326951	220	3	1.11	0.95;
	136	1	0	0	0	0	1	0.211689221	28.5588045	400	3	1.05	0.95;
	137	1	0	0	0	0	1	0.0491375929	103.156849	400	3	1.05	0.95;
	138	1	0	0	0	0	1	0.447043066	10.7543655	400	3	1.05	0.95;
	139	1	0	0	0	0	1	0.137187656	141.304077	400	3	1.05	0.95;
	140	1	0	0	0	0	1	0.0143383641	-98.7118947	220	3	1.11	0.95;
	141	1	0	0	0	0	1	0.00784291627	8.16697427	220	3	1.11	0.95;
	142	1	18.2	37.21	0	0	1	0.934918924	-144.243957	220	3	1.11	0.95;
	143	1	41.52	73.01	0	0	1	0.0176924939	-48.0461025	220	3	1.11	0.95;
	144	1	28	66	0	0	1	67.377897	63.3545313	400	3	1.05	0.95;
	145	1	0	0	0	0	1	12.4032114	-127.898091	400	3	1.05	0.95;
	146	1	0	0	0	0	1	0.849807266	31.9292174	220	3	1.11	0.95;
	147	1	0	0	0	0	1	3.64064212	2.61094398	220	3	1.11	0.95;
	148	1	0	0	0	0	1	4.75170435	-116.944113	220	3	1.11	0.95;
	149	1	0	0	0	0	1	8.73722637	22.5051233	220	3	1.11	0.95;
	150	2	0	-0.79	0	0	1	0.00138332049	54.0994977	220	3	1.11	0.95;
	151	2	0	-0.79	0	0	1	0.00747344664	35.7757291	220	3	1.11	0.95;
	152	1	7.7	20	0	0	1	0.205972079	-145.463118	220	4	1.11	0.95;
	153	1	7.8	20	0	0	1	0.28454332	-101.837414	220	4	1.11	0.95;
	154	1	0	0	0	0	1	7.21199599e-05	149.006067	220	4	1.11	0.95;
	155	1	0	0	0	0	1	0.00728128709	189.089285	220	4	1.11	0.95;
	156	1	0	0	0	0	1	0.0598349751	-138.533414	220	4	1.11	0.95;
	157	1	0	0	0	0	1	0.00809380734	190.439982	220	4	1.11	0.95;
	158	1	0	0	0	0	1	2.37999838e-05	114.136117	220	4	1.11	0.95;
	159	1	0	0	0	0	1	0.0107380184	13.3907499	400	4	1.05	0.95;
	160	1	0	0	0	0	1	0.00180523882	174.773608	400	4	1.05	0.95;
	161	1	0	0	0	0	1	3.19061962	-7.24340798	220	4	1.11	0.95;
	162	1	0	0	0	0	1	0.25207002	-13.7636782	220	4	1.11	0.95;
	163	1	0	0	0	0	1	0.25207002	-13.7637365	220	4	1.11	0.95;
	164	1	0	0	0	0	1	0.800006163	-77.1627172	220	4	1.11	0.95;
	165	1	0	0	0	0	1	0.800006163	-77.1627172	220	4	1.11	0.95;
	166	1	0	0	0	0	1	0.88909086	73.7921753	220	4	1.11	0.95;
	167	2	0	-13.01	0	0	1	0.00454747272	-62.4613912	220	4	1.11	0.95;
	168	1	0	0	0	0	1	0.0125825142	190.358333	220	4	1.11	0.95;
	169	1	12	30	0	0	1	0.0508953274	-59.3203975	220	4	1.11	0.95;
	170	1	19.91	36.57	0	0	1	0.0463717185	60.5470901	220	4	1.11	0.95;
	171	1	12	30	0	0	1	0.000315463219	13.0710681	400	4	1.05	0.95;
	172	1	12	30	0	0	1	0.0229563367	1.07898798	400	4	1.05	0.95;
	173	1	0	0	0	0	1	0.0353605181	-115.530642	220	4	1.11	0.95;
	174	1	0	0	0	0	1	0.0133963536	3.2387076	220	4	1.11	0.95;
	175	1	0	0	0	0	1	0.0620371158	127.960596	220	4	1.11	0.95;
	176	1	0	0	0	0	1	0.434229206	140.117561	220	4	1.11	0.95;
	177	1	30.5	64.2	0	0	1	0.0566429853	-128.382115	220	4	1.11	0.95;
	178	1	58.9	96	0	0	1	0.0350906009	-98.5437165	220	4	1.11	0.95;
	179	1	0	0	0	0	1	0.0240070634	-99.9133891	220	4	1.11	0.95;
	180	1	26.5	64.2	0	0	1	0.0305769503	-16.2910396	400	4	1.05	0.95;
	181	1	0	0	0	0	1	0.022768791	-149.490292	400	4	1.05	0.95;
	182	1	0	0	0	0	1	0.152213753	85.1599215	220	4	1.11	0.95;
	183	1	0	0	0	0	1	0.161852817	81.6011199	220	4	1.11	0.95;
	184	1	0	0	0	0	1	2.35925531	-46.1375828	400	4	1.05	0.95;
	185	1	0	0	0	0	1	1.3754713	-20.194234	400	4	1.05	0.95;
	186	1	0	0	0	0	1	4.60808507e-05	-75.7993831	400	4	1.05	0.95;
	187	1	0	0	0	0	1	0.0224022898	-94.351609	400	4	1.05	0.95;
	188	1	12	30	0	0	1	1.93602227	17.8175396	220	4	1.11	0.95;
	189	1	23.8	60	0	0	1	1.55812046	45.9225268	220	4	1.11	0.95;
	190	1	38	64	0	0	1	14.0985281	-44.4287891	400	4	1.05	0.95;
	191	1	0	0	0	0	1	0.0021206938	118.863194	220	4	1.11	0.95;
	192	1	0	0	0	0	1	0.0241046411	66.8643062	220	4	1.11	0.95;
	193	1	0	0	0	0	1	0.0124788541	111.710551	220	4	1.11	0.95;
	194	1	0	0	0	0	1	0.00594167538	49.1078148	220	4	1.11	0.95;
	195	1	0	0	0	0	1	0.219965328	-10.0379183	220	4	1.11	0.95;
	196	1	0	0	0	0	1	0.0048621686	-77.3691302	220	4	1.11	0.95;
	197	1	0	0	0	0	1	0.131758298	165.997151	400	4	1.05	0.95;
	198	1	0	0	0	0	1	0.0208297443	-32.0605194	220	4	1.11	0.95;
	199	1	0	0	0	0	1	0.00545881627	198.209244	220	4	1.11	0.95;
	200	1	0	0	0	0	1	0.015538703	24.0696553	220	4	1.11	0.95;
...
];

%% generator data
%	bus	Pg	Qg	Qmax	Qmin	Vg	mBase	status	Pmax	Pmin	Pc1	Pc2	Qc1min	Qc1max	Qc2min	Qc2max	ramp_agc	ramp_10	ramp_30	ramp_q	apf
mpc.gen = [
	22	180	162	162	-61	1.06818	235	1	221	110	0	0	0	0	0	0	0	0	0	0	0;
	23	180	140	140	-25	1.06818	235	1	200	140	0	0	0	0	0	0	0	0	0	0	0;
	35	0	0	190	-19	1.09545	426	0	370	240	0	0	0	0	0	0	0	0	0	0	0;
	35	0	0	190	-19	1.09545	426	0	370	240	0	0	0	0	0	0	0	0	0	0	0;
	35	345	190	190	-19	1.09545	426	1	370	240	0	0	0	0	0	0	0	0	0	0	0;
	36	370	190	190	-19	1.09545	426	1	370	240	0	0	0	0	0	0	0	0	0	0	0;
	36	320	190	190	-19	1.09545	426	1	370	240	0	0	0	0	0	0	0	0	0	0	0;
	37	779232.029	190	190	-19	1.04	426	1	370	240	0	0	0	0	0	0	0	0	0	0	0;
	37	340	190	190	-19	1.04	426	1	370	240	0	0	0	0	0	0	0	0	0	0	0;
	37	340	190	190	-19	1.04	426	1	370	240	0	0	0	0	0	0	0	0	0	0	0;
	38	370	190	190	-19	1.04	426	1	370	240	0	0	0	0	0	0	0	0	0	0	0;
	38	340	190	190	-19	1.04	426	1	370	240	0	0	0	0	0	0	0	0	0	0	0;
	38	340	190	190	-19	1.04	426	1	370	240	0	0	0	0	0	0	0	0	0	0	0;
	55	205	152	152	-33	1.09091	235	1	215	110	0	0	0	0	0	0	0	0	0	0	0;
	55	0	0	152	-33	1.09091	235	0	220	125	0	0	0	0	0	0	0	0	0	0	0;
	56	0	0	149	-33	1.09091	235	0	225	125	0	0	0	0	0	0	0	0	0	0	0;
	56	205	149	149	-33	1.09091	235	1	225	110	0	0	0	0	0	0	0	0	0	0	0;
	57	225	149	149	-33	1.09091	235	1	225	110	0	0	0	0	0	0	0	0	0	0	0;
	57	185	149	149	-33	1.09091	235	1	225	120	0	0	0	0	0	0	0	0	0	0	0;
	58	330	363	363	-47	1.035	588	1	535	255	0	0	0	0	0	0	0	0	0	0	0;
	59	330	348	348	-100	1.035	588	1	560	250	0	0	0	0	0	0	0	0	0	0	0;
	68	210	-14	120	-14	1.08636	235	1	225	129	0	0	0	0	0	0	0	0	0	0	0;
	69	225	120	120	-14	1.08636	235	1	225	129	0	0	0	0	0	0	0	0	0	0	0;
	69	195	99	99	-10	1.08636	235	1	225	129	0	0	0	0	0	0	0	0	0	0	0;
	70	0	0	120	-14	1.0325	235	0	225	129	0	0	0	0	0	0	0	0	0	0	0;
	70	0	0	120	-14	1.0325	235	0	225	129	0	0	0	0	0	0	0	0	0	0	0;
	71	225	99	99	-10	1.0325	235	1	225	129	0	0	0	0	0	0	0	0	0	0	0;
	71	215	120	120	-14	1.0325	235	1	225	129	0	0	0	0	0	0	0	0	0	0	0;
	92	220	134	134	-7	1.08182	271	1	220	140	0	0	0	0	0	0	0	0	0	0	0;
	92	210	131	131	-6	1.08182	271	1	225	140	0	0	0	0	0	0	0	0	0	0	0;
	93	0	0	131	-6	1.08182	271	0	225	140	0	0	0	0	0	0	0	0	0	0	0;
	93	225	131	131	-6	1.08182	271	1	225	140	0	0	0	0	0	0	0	0	0	0	0;
	93	205	131	131	-6	1.08182	271	1	225	140	0	0	0	0	0	0	0	0	0	0	0;
	96	383	213	213	-30	1.0375	426	1	383	180	0	0	0	0	0	0	0	0	0	0	0;
	96	357	212	212	-31	1.0375	435	1	380	180	0	0	0	0	0	0	0	0	0	0	0;
	113	0	0	0	0	1.07727	12	0	12	0	0	0	0	0	0	0	0	0	0	0	0;
	113	0	0	0	0	1.07727	6	0	6	0	0	0	0	0	0	0	0	0	0	0	0;
	113	19	0	0	0	1.07727	26	1	21	0	0	0	0	0	0	0	0	0	0	0	0;
	119	215	120	120	-10	1.08182	271	1	225	120	0	0	0	0	0	0	0	0	0	0	0;
	120	215	120	120	-10	1.08182	271	1	225	120	0	0	0	0	0	0	0	0	0	0	0;
	121	115	73	73	-1	1.08182	150	1	120	70	0	0	0	0	0	0	0	0	0	0	0;
	122	115	73	73	-1	1.08182	150	1	120	70	0	0	0	0	0	0	0	0	0	0	0;
	132	0	0	79	0	1.07727	150	0	120	70	0	0	0	0	0	0	0	0	0	0	0;
	133	115	79	79	0	1.07727	150	1	120	70	0	0	0	0	0	0	0	0	0	0	0;
	134	105	31	31	0	1.07273	118	1	110	80	0	0	0	0	0	0	0	0	0	0	0;
	142	205	135	135	-35	1.08182	271	1	215	135	0	0	0	0	0	0	0	0	0	0	0;
	143	215	135	135	-35	1.08182	271	1	215	135	0	0	0	0	0	0	0	0	0	0	0;
	143	205	140	140	-35	1.08182	271	1	225	135	0	0	0	0	0	0	0	0	0	0	0;
	144	225	-36	140	-36	1.0375	271	1	225	135	0	0	0	0	0	0	0	0	0	0	0;
	144	205	-36	137	-36	1.0375	271	1	220	135	0	0	0	0	0	0	0	0	0	0	0;
	150	0	0	72	-29	1.04091	150	0	135	-135	0	0	0	0	0	0	0	0	0	0	0;
	150	0	0	72	-29	1.04091	150	0	135	-135	0	0	0	0	0	0	0	0	0	0	0;
	151	0	0	72	-29	1.04091	150	0	135	-135	0	0	0	0	0	0	0	0	0	0	0;
	151	0	0	72	-29	1.04091	150	0	135	-135	0	0	0	0	0	0	0	0	0	0	0;
	152	110	85	85	-15	1.06818	150	1	120	100	0	0	0	0	0	0	0	0	0	0	0;
	152	0	0	85	-15	1.06818	150	0	120	100	0	0	0	0	0	0	0	0	0	0	0;
	153	110	85	85	-15	1.06818	150	1	120	100	0	0	0	0	0	0	0	0	0	0	0;
	167	0	0	12	0	1.05	51	0	50	40	0	0	0	0	0	0	0	0	0	0	0;
	169	180	111	111	-21	1.08182	238	1	205	135	0	0	0	0	0	0	0	0	0	0	0;
	170	0	0	102	-15	1.08182	252	0	222	90	0	0	0	0	0	0	0	0	0	0	0;
	170	0	0	111	-21	1.08182	238	0	205	135	0	0	0	0	0	0	0	0	0	0	0;
	170	180	119	119	-31	1.08182	252	1	232	100	0	0	0	0	0	0	0	0	0	0	0;
	171	200	102	102	-15	1.0325	252	1	222	90	0	0	0	0	0	0	0	0	0	0	0;
	172	0	0	93	-10	1.0325	252	0	232	100	0	0	0	0	0	0	0	0	0	0	0;
	172	200	102	102	-15	1.0325	252	1	222	90	0	0	0	0	0	0	0	0	0	0	0;
	177	261	127	127	-35	1.09091	287	1	261	104	0	0	0	0	0	0	0	0	0	0	0;
	177	189	145	145	-38	1.09091	264	1	235	94	0	0	0	0	0	0	0	0	0	0	0;
	178	0	0	103	-17	1.09091	238	0	206	120	0	0	0	0	0	0	0	0	0	0	0;
	178	235	145	145	-38	1.09091	264	1	235	94	0	0	0	0	0	0	0	0	0	0	0;
	178	220	127	127	-35	1.09091	287	1	261	104	0	0	0	0	0	0	0	0	0	0	0;
	178	220	127	127	-35	1.09091	287	1	261	104	0	0	0	0	0	0	0	0	0	0	0;
	180	206	103	103	-17	1.03	238	1	206	120	0	0	0	0	0	0	0	0	0	0	0;
	180	194	103	103	-17	1.03	238	1	206	120	0	0	0	0	0	0	0	0	0	0	0;
	188	180	-32	112	-32	1.05455	233	1	225	150	0	0	0	0	0	0	0	0	0	0	0;
	189	200	112	112	-32	1.05455	233	1	200	150	0	0	0	0	0	0	0	0	0	0	0;
	189	0	0	112	-32	1.05455	233	0	200	150	0	0	0	0	0	0	0	0	0	0	0;
	189	160	112	112	-32	1.05455	233	1	200	150	0	0	0	0	0	0	0	0	0	0	0;
	190	32266.5775	-259	294	-259	1.005	464	1	464	186	0	0	0	0	0	0	0	0	0	0	0;
	204	0	0	100	0	1	218	0	188	76	0	0	0	0	0	0	0	0	0	0	0;
	236	179	105	105	-62	1.0375	209	1	179	-200	0	0	0	0	0	0	0	0	0	0	0;
	236	89.5	105	105	-62	1.0375	209	1	179	-200	0	0	0	0	0	0	0	0	0	0	0;
	236	89.5	130	130	-75	1.0375	209	1	179	-200	0	0	0	0	0	0	0	0	0	0	0;
	237	0	160	160	-100	1.0375	209	1	179	-200	0	0	0	0	0	0	0	0	0	0	0;
	240	224	150	150	0	1.09091	156	1	250	113	0	0	0	0	0	0	0	0	0	0	0;
	250	0	0	20	0	1.08182	79	0	55	23	0	0	0	0	0	0	0	0	0	0	0;
	250	0	0	20	0	1.08182	69	0	50	25	0	0	0	0	0	0	0	0	0	0	0;
	251	15	0	20	0	1.08182	28	1	23	7	0	0	0	0	0	0	0	0	0	0	0;
	251	0	0	20	0	1.08182	69	0	50	25	0	0	0	0	0	0	0	0	0	0	0;
	267	1.5	1	1	0	1.07273	1	1	2	0	0	0	0	0	0	0	0	0	0	0	0;
	268	1.6	1	1	0	1.06364	1	1	2	0	0	0	0	0	0	0	0	0	0	0	0;
	282	0	0	5	0	1.07273	10	0	7	6	0	0	0	0	0	0	0	0	0	0	0;
	283	0	0	5	0	1.07273	10	0	7	6	0	0	0	0	0	0	0	0	0	0	0;
	301	5	3.75	3.75	0	1.04545	5	1	5	1	0	0	0	0	0	0	0	0	0	0	0;
	301	1.68	3.75	3.75	0	1.04545	5	1	5	1	0	0	0	0	0	0	0	0	0	0	0;
	301	1.68	3.75	3.75	0	1.04545	5	1	5	1	0	0	0	0	0	0	0	0	0	0	0;
	302	2.79	0	3.75	0	1.04545	5	1	5	1	0	0	0	0	0	0	0	0	0	0	0;
	316	350	190	190	-19	1	426	1	370	240	0	0	0	0	0	0	0	0	0	0	0;
	322	0	0	2	0	1.03636	4	0	6	1	0	0	0	0	0	0	0	0	0	0	0;
	322	0	0	2	0	1.03636	4	0	6	1	0	0	0	0	0	0	0	0	0	0	0;
	369	9.16	0	4	0	1.07273	30	1	30	0	0	0	0	0	0	0	0	0	0	0	0;
	398	0	0	5	0	1.08182	8	0	7	5	0	0	0	0	0	0	0	0	0	0	0;
	402	0.9	0	1	0	1.08182	1	1	1	0	0	0	0	0	0	0	0	0	0	0	0;
	402	0.55	0	1	0	1.08182	1	1	1	0	0	0	0	0	0	0	0	0	0	0	0;
	402	0.55	0	1	0	1.08182	1	1	1	0	0	0	0	0	0	0	0	0	0	0	0;
	409	0	0	7	0	1.07545	31	0	27	11	0	0	0	0	0	0	0	0	0	0	0;
	409	20	7	7	0	1.07545	39	1	30	11	0	0	0	0	0	0	0	0	0	0	0;
	409	0	0	6	0	1.07545	41	0	30	9	0	0	0	0	0	0	0	0	0	0	0;
	411	0	0	15	0	1.07273	69	0	55	20	0	0	0	0	0	0	0	0	0	0	0;
	411	20	15	15	0	1.07273	69	1	55	20	0	0	0	0	0	0	0	0	0	0	0;
	412	0	0	15	0	1.07273	49	0	40	10	0	0	0	0	0	0	0	0	0	0	0;
	412	0	0	15	0	1.07273	69	0	55	20	0	0	0	0	0	0	0	0	0	0	0;
	414	0	0	20	0	1.07273	69	0	50	25	0	0	0	0	0	0	0	0	0	0	0;
	414	0	0	20	0	1.07273	147	0	100	55	0	0	0	0	0	0	0	0	0	0	0;
	415	30	0	40	0	1.07273	69	1	60	25	0	0	0	0	0	0	0	0	0	0	0;
	428	2	3	3	0	1.07273	4	1	3	2	0	0	0	0	0	0	0	0	0	0	0;
	466	0	0	1	0	1.06364	2	0	2	1	0	0	0	0	0	0	0	0	0	0	0;
	492	38	-22	57	-22	1.07273	69	1	52	15	0	0	0	0	0	0	0	0	0	0	0;
	493	47	57	57	-22	1.07273	69	1	55	15	0	0	0	0	0	0	0	0	0	0	0;
	494	47	57	57	-22	1.08182	69	1	55	15	0	0	0	0	0	0	0	0	0	0	0;
	494	15	57	57	-22	1.08182	69	1	55	15	0	0	0	0	0	0	0	0	0	0	0;
	495	55	57	57	-22	1.07273	69	1	55	15	0	0	0	0	0	0	0	0	0	0	0;
	495	15	71	71	-28	1.07273	88	1	77	3	0	0	0	0	0	0	0	0	0	0	0;
	517	180	-61	162	-61	1.09091	235	1	226	120	0	0	0	0	0	0	0	0	0	0	0;
	517	0	0	12	0	1.09091	49	0	25	12	0	0	0	0	0	0	0	0	0	0	0;
	518	15	12	12	0	1.1	49	1	17	10	0	0	0	0	0	0	0	0	0	0	0;
	522	0	0	2	0	1.06364	6	0	4	4	0	0	0	0	0	0	0	0	0	0	0;
	542	0.3	0.2	0.2	0	1.08182	0	1	0	0	0	0	0	0	0	0	0	0	0	0	0;
	571	0	0	4	0	1.04545	8	0	7	3	0	0	0	0	0	0	0	0	0	0	0;
	580	0	0	3	0	1.08182	5	0	3	3	0	0	0	0	0	0	0	0	0	0	0;
	587	4	3.8	4.7	3.8	1.06364	7	1	7	1	0	0	0	0	0	0	0	0	0	0	0;
	587	1	3.8	4.7	3.8	1.06364	7	1	7	1	0	0	0	0	0	0	0	0	0	0	0;
	587	0	0	4.7	3.8	1.06364	7	0	7	1	0	0	0	0	0	0	0	0	0	0	0;
	599	2.5	2	2	0	1.07273	4	1	3	2	0	0	0	0	0	0	0	0	0	0	0;
	633	0	0	2	0	1.02727	5	0	4	3	0	0	0	0	0	0	0	0	0	0	0;
	663	1	0	0.7	0	1.05455	2	1	2	1	0	0	0	0	0	0	0	0	0	0	0;
	663	0	0	0.7	0	1.05455	2	0	2	1	0	0	0	0	0	0	0	0	0	0	0;
	669	0	0	3	0	1.06364	6	0	4	3	0	0	0	0	0	0	0	0	0	0	0;
	740	52	35	35	2	1.05455	63	1	52	37	0	0	0	0	0	0	0	0	0	0	0;
	740	0	0	23	2	1.05455	38	0	30	10	0	0	0	0	0	0	0	0	0	0	0;
	740	0	0	85	6	1.05455	150	0	105	50	0	0	0	0	0	0	0	0	0	0	0;
	740	58	85	85	6	1.05455	150	1	105	50	0	0	0	0	0	0	0	0	0	0	0;
	741	0	0	23	2	1.05455	38	0	30	10	0	0	0	0	0	0	0	0	0	0	0;
	741	0	0	23	2	1.05455	38	0	30	10	0	0	0	0	0	0	0	0	0	0	0;
	741	30	25	25	2	1.05455	38	1	30	10	0	0	0	0	0	0	0	0	0	0	0;
	741	70	85	85	6	1.05455	150	1	125	68	0	0	0	0	0	0	0	0	0	0	0;
	741	0	0	85	6	1.05455	150	0	105	50	0	0	0	0	0	0	0	0	0	0	0;
	762	1.4	0	0.7	0	1.04545	2	1	2	1	0	0	0	0	0	0	0	0	0	0	0;
	764	1	1	1	0	1.06364	4	1	1	0	0	0	0	0	0	0	0	0	0	0	0;
	772	0	0	18	2	1.05455	38	0	35	9	0	0	0	0	0	0	0	0	0	0	0;
	772	20	30	30	2	1.05455	38	1	20	9	0	0	0	0	0	0	0	0	0	0	0;
	773	0	0	18	2	1.05455	38	0	35	9	0	0	0	0	0	0	0	0	0	0	0;
	773	0	0	18	2	1.05455	38	0	35	9	0	0	0	0	0	0	0	0	0	0	0;
	773	0	0	18	2	1.05455	38	0	35	9	0	0	0	0	0	0	0	0	0	0	0;
	773	80	65	65	6	1.05455	121	1	97	30	0	0	0	0	0	0	0	0	0	0	0;
	774	0	0	18	2	1.05455	38	0	35	9	0	0	0	0	0	0	0	0	0	0	0;
	774	0	0	18	2	1.05455	38	0	30	9	0	0	0	0	0	0	0	0	0	0	0;
	774	0	0	14	2	1.05455	32	0	28	9	0	0	0	0	0	0	0	0	0	0	0;
	809	1	4	4	0	1.07273	5	1	8	1	0	0	0	0	0	0	0	0	0	0	0;
	809	0	0	2	0	1.07273	2	0	2	1	0	0	0	0	0	0	0	0	0	0	0;
	829	0	0	4.5	0.2	1.04545	6	0	4	4	0	0	0	0	0	0	0	0	0	0	0;
	844	2.5	0	0	0	1.07273	6	1	3	0	0	0	0	0	0	0	0	0	0	0	0;
	853	0	0	0	0	1.06364	4	0	5	0	0	0	0	0	0	0	0	0	0	0	0;
	876	93	30	30	0	1.08182	65	1	93	0	0	0	0	0	0	0	0	0	0	0	0;
	876	12	30	30	0	1.08182	65	1	36	0	0	0	0	0	0	0	0	0	0	0	0;
	879	0	0	0	0	1.06364	12	0	3	0	0	0	0	0	0	0	0	0	0	0	0;
	886	0	0	0	0	1.08182	5	0	6	0	0	0	0	0	0	0	0	0	0	0	0;
	887	0	0	0	0	1.08182	6	0	6	0	0	0	0	0	0	0	0	0	0	0	0;
	922	205	-33	149	-33	1.09091	235	1	225	135	0	0	0	0	0	0	0	0	0	0	0;
	923	0	0	149	-33	1.09091	235	0	225	110	0	0	0	0	0	0	0	0	0	0	0;
	931	0	0	0	0	1.07273	3	0	3	0	0	0	0	0	0	0	0	0	0	0	0;
	937	0	0	0	0	1.07273	12	0	12	0	0	0	0	0	0	0	0	0	0	0	0;
	947	0	0	30	0	1.07273	168	0	170	66	0	0	0	0	0	0	0	0	0	0	0;
	947	0	0	30	0	1.07273	72	0	61	34	0	0	0	0	0	0	0	0	0	0	0;
	953	0	0	0	0	1.07273	8	0	21	0	0	0	0	0	0	0	0	0	0	0	0;
	967	0	0	0	0	1.07273	6	0	7	0	0	0	0	0	0	0	0	0	0	0	0;
	970	0	0	0	0	1.08182	3	0	10	0	0	0	0	0	0	0	0	0	0	0	0;
	985	8.5	0	0	0	1.08182	3	1	30	0	0	0	0	0	0	0	0	0	0	0	0;
	990	0.3	0	0	0	1.06364	1	1	2	0	0	0	0	0	0	0	0	0	0	0	0;
	995	0	0	0	0	1.06364	1	0	2	0	0	0	0	0	0	0	0	0	0	0	0;
	1006	0	0	0	0	1.06364	2	0	2	1	0	0	0	0	0	0	0	0	0	0	0;
	1011	190	120	120	-14	1.09091	235	1	225	129	0	0	0	0	0	0	0	0	0	0	0;
	1013	0	0	30	0	1.06364	37	0	36	0	0	0	0	0	0	0	0	0	0	0	0;
	1016	0	0	0	0	1.07273	3	0	3	2	0	0	0	0	0	0	0	0	0	0	0;
	1036	0	0	30	0	1.08182	101	0	101	49	0	0	0	0	0	0	0	0	0	0	0;
	1042	0	0	0	0	1.06364	2	0	12	0	0	0	0	0	0	0	0	0	0	0	0;
	1057	6.1	0	30	0	1.07273	10	1	12	0	0	0	0	0	0	0	0	0	0	0	0;
	1060	0	0	0	0	1.08182	2	0	2	1	0	0	0	0	0	0	0	0	0	0	0;
	1062	0	0	0	0	1.07273	6	0	6	1	0	0	0	0	0	0	0	0	0	0	0;
	1067	5	0	0	0	1.08182	11	1	8	0	0	0	0	0	0	0	0	0	0	0	0;
	1071	0	0	23	0	1.09091	52	0	68	5	0	0	0	0	0	0	0	0	0	0	0;
	1071	60	23	23	0	1.09091	52	1	68	5	0	0	0	0	0	0	0	0	0	0	0;
	1071	0	0	11	0	1.09091	25	0	31	-32	0	0	0	0	0	0	0	0	0	0	0;
	1071	0	0	10	0	1.09091	25	0	31	-32	0	0	0	0	0	0	0	0	0	0	0;
	1086	0	0	24	-1	1.08182	69	0	50	8	0	0	0	0	0	0	0	0	0	0	0;
	1086	110	74	74	-15	1.08182	58	1	125	92	0	0	0	0	0	0	0	0	0	0	0;
	1087	110	-15	74	-15	1.08182	58	1	125	85	0	0	0	0	0	0	0	0	0	0	0;
	1087	0	0	28	-2	1.08182	40	0	41	12	0	0	0	0	0	0	0	0	0	0	0;
	1099	0	0	0	0	1.08182	3	0	3	0	0	0	0	0	0	0	0	0	0	0	0;
	1126	0	0	0	0	1.06364	4	0	3	2	0	0	0	0	0	0	0	0	0	0	0;
	1132	31	0	0	0	1.08182	31	1	31	0	0	0	0	0	0	0	0	0	0	0	0;
...
];

%% branch data
%	fbus	tbus	r	x	b	rateA	rateB	rateC	ratio	angle	status	angmin	angmax	Pf	Qf	Pt	Qt
mpc.branch = [
	9	11	0.00064	0.0305	0	400	400	400	1.09271	0	1	-360	360	-1.4380	2.1269	1.8682	18.3768;
	13	12	0.00069	0.03946	0	250	250	250	0.9999	0	1	-360	360	10088.8165	576570.5680	-3.3028	203.8838;
	20	18	0.00088	0.05709	0	330	330	330	0.9999	0	1	-360	360	0.1795	2.4516	-0.1399	0.1129;
	34	33	0.0007	0.03652	0	250	250	250	0.9999	0	1	-360	360	-0.2805	0.2110	0.3035	0.9922;
	35	37	0.00036	0.02519	0	500	500	500	1.07313	0	1	-360	360	1190.5300	493664.1040	5895.4701	2159.0685;
	36	38	0.00036	0.02519	0	500	500	500	1.07313	0	1	-360	360	1300.1039	6909.9243	-1109.1256	6453.2524;
	53	54	0.00034	0.02097	0	500	500	500	1.0755	0	1	-360	360	31352.1579	38208.6130	-26708.9875	248165.7477;
	57	59	0.00034	0.02097	0	500	500	500	1.07313	0	1	-360	360	370.3364	280.1977	-337.5218	1743.6958;
	68	70	0.00081	0.03	0	400	400	400	1.10102	0	1	-360	360	-31.5139	22.6997	32.6353	18.8367;
	105	107	0.00075	0.02445	-0.00832	330	330	330	1.039	0	1	-360	360	449.9586	7057.2091	-240.7970	-237.7929;
	106	108	0.0004	0.0253	0	500	500	500	1.0457	0	1	-360	360	93.5559	5663.3775	-4.9886	-61.4988;
	142	145	0.00053	0.02875	-0.016	400	400	400	1.06299	0	1	-360	360	-11296.4909	-33510.6609	19865.1035	498441.1673;
	170	171	0.00064	0.0305	0	400	400	400	1.07408	0	1	-360	360	0.1604	6.0777	-0.0335	-0.0292;
	177	180	0.00023	0.023	0	500	500	500	1.07426	0	1	-360	360	-6.3473	14.7875	6.5615	6.6356;
	178	181	0.00023	0.023	0	500	500	500	1.07426	0	1	-360	360	2.5369	2.5764	-2.5087	0.2417;
	185	184	0.00032	0.04392	0	330	330	330	0.9999	0	1	-360	360	3215.5272	-2359.6372	-3188.6266	6051.7453;
	188	190	0.0003	0.02732	0	500	500	500	1.10037	0	1	-360	360	80000.7448	-31828.5218	-72816.4816	686075.4220;
	195	197	0.00035	0.02375	0	500	500	500	1.08671	0	1	-360	360	-3.5707	284.5887	10.4905	184.9660;
	208	209	0.00051	0.0275	0	400	400	400	1.07702	0	1	-360	360	32974.7185	2061560.7457	5355.5780	5268.9662;
	213	211	0.00084	0.06858	0	250	250	250	0.9999	0	1	-360	360	129.9187	51.6969	-123.2805	490.2624;
	216	218	0.00033	0.02711	0	500	500	500	1.08613	0	1	-360	360	18.8877	105.5021	-17.4190	15.1508;
	220	218	0.00032	0.0464	0	330	330	330	0.9999	0	1	-360	360	-20.0745	196.6226	21.4869	8.1786;
	227	225	0.00113	0.05647	0	330	330	330	0.9999	0	1	-360	360	1966.1824	70147.6769	-564.6009	-105.8133;
	224	226	0.00075	0.02469	-0.008	330	330	330	1.04544	0	1	-360	360	6.7400	510.3385	8.8362	2.4789;
	3116	180	0.00029	0.00317	0.09184	1386	1386	1386	0	0	1	-360	360	95.6007	5322.9949	383.5914	-85.7220;
	3116	181	0.0003	0.00326	0.09536	1386	1386	1386	0	0	1	-360	360	699.3719	5031.1400	-248.1028	-128.1702;
	240	82	0.01475	0.08595	0.13036	339	339	339	0	0	1	-360	360	335.7509	-276.3754	-315.5138	373.7509;
	3114	90	0.01244	0.06959	0.10842	412	412	412	0	0	1	-360	360	3454.6685	16160.3695	-496.4619	325.1912;
	3114	120	0.01207	0.06905	0.11519	412	412	412	0	0	1	-360	360	2832.7379	15916.3502	-83.9832	-257.9405;
	144	3115	0.00168	0.01603	0.51488	1206	1206	1206	0	0	1	-360	360	-9837032.2808	34598699.0469	14655009.1406	11225305.3925;
	3117	169	0.0018	0.01616	0.0484	436	436	436	0	0	1	-360	360	446.6975	6733.1498	286.5400	-153.0200;
	3117	170	0.0018	0.01616	0.0484	436	436	436	0	0	1	-360	360	823.9245	7130.3398	5.6577	314.7526;
	3118	61	0.00223	0.02209	0.69011	831	831	831	0	0	1	-360	360	716.5164	4483.4986	-286.5076	-261.6667;
	3118	62	0.00223	0.02209	0.69011	831	831	831	0	0	1	-360	360	3152.1865	2762.5457	-2787.3634	796.0521;
	97	3113	0.00293	0.03054	0.95472	1206	1206	1206	0	0	1	-360	360	-921.9203	832.2678	1973.0989	9980.8169;
	56	28	0.01174	0.07014	0.12689	339	339	339	0	0	1	-360	360	3.4092	20.0361	-0.0377	0.0146;
	35	105	0.00919	0.06614	0.10451	375	375	375	0	0	1	-360	360	13625.2935	191504.8501	10316.2532	-19953.8458;
	36	106	0.00822	0.05767	0.0982	400	400	400	0	0	1	-360	360	2429.0529	2371.7147	-1544.3673	3822.0265;
	167	39	0.01698	0.12459	0.1957	231	231	231	0	0	1	-360	360	0.0380	-0.0084	-0.0256	0.0976;
	153	46	0.01298	0.06738	0.10284	250	250	250	0	0	1	-360	360	236.5278	-50.5363	-142.8110	534.4137;
	152	25	0.01068	0.0475	0.09495	339	339	339	0	0	1	-360	360	159.0261	-623.0832	881.3478	5236.2015;
	188	26	0.01436	0.10729	0.16081	231	231	231	0	0	1	-360	360	431.6088	3413.4919	29.8530	4.1568;
	53	124	0.01488	0.08161	0.1148	266	266	266	0	0	1	-360	360	-3153.5465	10432.7934	11714.0289	36359.0080;
	52	106	0.01116	0.07171	0.10367	267	267	267	0	0	1	-360	360	4251.2849	8472.0558	-2146.5628	5019.0809;
	203	98	0.00552	0.05948	0.17077	317	317	317	0	0	1	-360	360	-906.3819	9620.2336	3152.3378	14514.5021;
	234	189	0.01118	0.06597	0.10778	267	267	267	0	0	1	-360	360	10.4472	14.5402	601.1648	3581.3249;
	221	188	0.01682	0.08909	0.12993	295	295	295	0	0	1	-360	360	-1.7260	-47.4975	751.1565	3992.6304;
	222	189	0.01384	0.08702	0.13484	295	295	295	0	0	1	-360	360	284.7132	931.9149	418.1993	3470.0670;
	238	192	0.01517	0.09938	0.14492	197	197	197	0	0	1	-360	360	6.5691	24.0390	-2.3833	3.2132;
	57	14	0.01457	0.07362	0.13344	356	356	356	0	0	1	-360	360	-19.9568	-19.3058	24.2848	40.4929;
	229	23	0.01403	0.10413	0.15949	231	231	231	0	0	1	-360	360	0.3134	-0.5499	-0.1079	2.0490;
	115	68	0.00374	0.0438	0.10096	476	476	476	0	0	1	-360	360	31.5450	21.0483	-28.9125	9.6116;
	187	97	0.00194	0.02007	0.54307	970	970	970	0	0	1	-360	360	0.2435	25.5276	24.9762	234.1951;
	58	12	0.0015	0.01506	0.4032	1154	1154	1154	0	0	1	-360	360	6.9894	45.2659	-2.2739	1.9415;
	210	171	0.00296	0.03484	0.9296	838	838	838	0	0	1	-360	360	1.8797	22.6172	0.0703	-0.0402;
	136	70	0.00169	0.01931	0.53814	866	866	866	0	0	1	-360	360	-15.0617	333.9353	57.5061	149.5546;
	38	108	0.00137	0.01569	0.43744	1154	1154	1154	0	0	1	-360	360	390.3359	5044.7781	46.6811	-57.4972;
	37	139	0.00234	0.02677	0.74653	1154	1154	1154	0	0	1	-360	360	-33.5960	133.5984	56.0044	121.3074;
	32	218	0.00217	0.02513	0.67098	1154	1154	1154	0	0	1	-360	360	-11.3303	52.3066	15.9954	1.2231;
	136	78	0.00152	0.01739	0.48083	866	866	866	0	0	1	-360	360	-2861.9229	-7302.1720	23721.0965	244876.9344;
	138	78	0.00468	0.05347	1.48883	831	831	831	0	0	1	-360	360	-3441.0870	-3979.3580	9894.6243	74385.7224;
	97	41	0.00355	0.03617	0.95894	717	717	717	0	0	1	-360	360	74.0289	464.1104	109.5128	1385.4925;
	107	41	0.00097	0.01052	0.28395	970	970	970	0	0	1	-360	360	-187.2376	-284.9379	461.7328	3256.4342;
	61	137	0.00144	0.01446	0.51213	1386	1386	1386	0	0	1	-360	360	-19.9354	69.1565	29.5491	27.1193;
	15	6	0.013	0.09781	0.14013	375	375	375	0	0	1	-360	360	-237.0285	203.2706	367.4706	772.3093;
	40	15	0.00525	0.03847	0.06053	231	231	231	0	0	1	-360	360	20.1930	-27.9111	6.1833	220.8839;
	31	6	0.00457	0.03351	0.05245	317	317	317	0	0	1	-360	360	0.0057	0.0013	294.4555	2157.2335;
	22	9	0.01469	0.10915	0.16676	317	317	317	0	0	1	-360	360	0.9978	9.3033	0.3963	0.9758;
	27	14	0.01262	0.09326	0.14324	231	231	231	0	0	1	-360	360	23.9315	27.9899	-6.0906	103.2352;
	35	7	0.00924	0.05052	0.07698	295	295	295	0	0	1	-360	360	53192.0898	264985.0239	-5666.5453	-5686.8552;
	22	3	0.01068	0.07936	0.12155	231	231	231	0	0	1	-360	360	1.6888	11.4109	-0.1588	-0.0991;
	35	25	0.00585	0.04027	0.07161	400	400	400	0	0	1	-360	360	89157.1978	314607.5194	-45154.9371	-12227.4268;
	36	24	0.00585	0.04027	0.07161	400	400	400	0	0	1	-360	360	-606.2419	2404.8540	942.5344	-94.2988;
	14	8	0.00558	0.04147	0.0629	231	231	231	0	0	1	-360	360	19.9407	180.0263	4.0675	-1.8398;
	43	15	0.00089	0.0063	0.0108	231	231	231	0	0	1	-360	360	-1719.5449	17089.0163	3731.6066	-2847.0895;
	29	15	0.00442	0.02374	0.04477	339	339	339	0	0	1	-360	360	37.3776	67.4910	61.2609	462.0762;
	45	7	0.00494	0.0269	0.04225	250	250	250	0	0	1	-360	360	805.8938	1421.9395	-361.2615	998.3447;
	24	6	0.00287	0.01671	0.02467	295	295	295	0	0	1	-360	360	-979.6129	-739.8083	1256.6852	2351.9045;
	35	1	0.0012	0.0089	0.01512	461	461	461	0	0	1	-360	360	179572.4188	1648648.1942	51923.7248	68173.4557;
	36	2	0.0012	0.0089	0.01513	461	461	461	0	0	1	-360	360	36729.3869	30001.8640	-11579.6838	156515.3963;
	36	30	0.00399	0.02901	0.04808	380	380	380	0	0	1	-360	360	265.6578	2732.1171	15.0099	-694.2178;
	32	12	0.00298	0.03445	0.94221	831	831	831	0	0	1	-360	360	3.7985	36.6457	-0.7087	-1.5657;
	37	32	0.00358	0.04122	1.13382	1154	1154	1154	0	0	1	-360	360	35.5346	71.6206	-23.8145	61.4216;
	19	38	0.00342	0.03928	1.08288	1154	1154	1154	0	0	1	-360	360	-0.4227	-2.5548	177.7706	1995.7035;
	11	21	0.00286	0.03355	0.90157	838	838	838	0	0	1	-360	360	8.8193	8.6872	-7.9331	1.3856;
	44	21	0.00023	0.00264	0.07296	838	838	838	0	0	1	-360	360	-134.5376	681.1359	207.2338	153.2264;
	11	19	0.0011	0.01271	0.35206	838	838	838	0	0	1	-360	360	3.6149	40.1539	-0.0766	0.6403;
	184	38	0.00139	0.0159	0.44176	838	838	838	0	0	1	-360	360	-9846.6001	37874.1606	13694.2274	5997.4715;
	77	72	0.01054	0.06151	0.09306	197	197	197	0	0	1	-360	360	3.2297	18.7232	-0.0199	-0.0466;
	74	69	0.00905	0.06723	0.10296	231	231	231	0	0	1	-360	360	207.5472	2574.9066	184.3318	328.1047;
	81	47	0.0114	0.06587	0.09975	274	274	274	0	0	1	-360	360	-22713.3215	28534.1319	29584.3159	10973.8262;
	64	47	0.0107	0.06628	0.10825	287	287	287	0	0	1	-360	360	-349.7811	-1213.5885	3867.2518	22912.3451;
	72	55	0.00543	0.03733	0.06668	341	341	341	0	0	1	-360	360	-0.0850	0.0935	10.3972	70.7106;
	73	57	0.00543	0.03733	0.06668	341	341	341	0	0	1	-360	360	-34.8888	19.1805	37.9303	1.5491;
	73	47	0.00657	0.0481	0.0727	319	319	319	0	0	1	-360	360	-678.5300	1290.8866	5605.5253	34720.1573;
	82	65	0.00302	0.0201	0.03069	339	339	339	0	0	1	-360	360	1195.0833	8747.5795	107.0473	-83.8576;
	65	51	0.007	0.05138	0.08084	231	231	231	0	0	1	-360	360	-21.2249	5.7640	100.1828	572.5695;
	49	68	0.00329	0.02506	0.0439	317	317	317	0	0	1	-360	360	-2.2370	-3.7107	7.9494	47.1926;
	50	48	0.00789	0.05868	0.08985	231	231	231	0	0	1	-360	360	14001.4110	7681.4000	20658.4051	249446.1378;
	69	50	0.00558	0.04062	0.06491	341	341	341	0	0	1	-360	360	-29.0507	412.8599	321.2056	1711.9114;
	81	49	0.00452	0.03366	0.05156	341	341	341	0	0	1	-360	360	8830.5438	64677.7324	-129.0105	64.5763;
	81	80	0.00134	0.00996	0.01337	287	287	287	0	0	1	-360	360	-245425.4867	119105.1192	290402.0969	215157.7986;
	76	55	0.00618	0.04353	0.07649	341	341	341	0	0	1	-360	360	9.6267	6.8528	1.0233	68.0561;
	77	56	0.00618	0.04353	0.07649	266	266	266	0	0	1	-360	360	25.9225	46.9544	-10.9884	58.1356;
	76	52	0.01219	0.0637	0.09333	266	266	266	0	0	1	-360	360	93.7079	23.2665	1308.4041	7281.2629;
	75	53	0.00246	0.01826	0.02798	231	231	231	0	0	1	-360	360	6399.8949	128.3282	-5732.7989	4818.3595;
	60	52	0.00242	0.01531	0.02249	287	287	287	0	0	1	-360	360	355977.5472	1076294.5724	-173699.3883	76681.1029;
	63	59	0.0017	0.01977	0.53386	838	838	838	0	0	1	-360	360	-844.8198	26802.4394	3712.3293	6421.5144;
	71	67	0.00116	0.013	0.33856	838	838	838	0	0	1	-360	360	325.4448	3814.6522	17.6423	21.8633;
	54	70	0.00218	0.02536	0.68579	838	838	838	0	0	1	-360	360	14137.0230	174605.6227	789.4747	-2529.8825;
	78	71	0.00105	0.01123	0.28195	1119	1119	1119	0	0	1	-360	360	16212.5922	428432.4114	27298.0124	36289.6686;
	62	79	0.00119	0.01428	0.36666	1154	1154	1154	0	0	1	-360	360	34594.6457	4252.7453	-6542.3434	331506.0008;
	66	58	0.00184	0.02139	0.5777	838	838	838	0	0	1	-360	360	-6.1569	7.4207	9.8293	35.0634;
	111	142	0.00488	0.03362	0.05961	341	341	341	0	0	1	-360	360	-1486.3258	6212.4422	3007.9990	4264.3783;
	89	122	0.01093	0.05919	0.08439	180	180	180	0	0	1	-360	360	-0.0070	0.6144	0.4276	1.6599;
	122	109	0.00194	0.01415	0.0223	341	341	341	0	0	1	-360	360	-4.3829	1.7857	4.9501	2.3492;
	93	148	0.00192	0.01355	0.023	341	341	341	0	0	1	-360	360	44114.2679	10165.9021	-17947.9338	174469.8547;
	148	100	0.00238	0.01667	0.02846	341	341	341	0	0	1	-360	360	21010.5881	131596.1697	-2282.0735	-450.0154;
	149	147	0.00066	0.00496	0.00758	319	319	319	0	0	1	-360	360	336820.3111	891206.5176	-258339.7096	-301446.8618;
	121	149	0.00537	0.04039	0.06005	319	319	319	0	0	1	-360	360	19830.9084	31560.7401	13064.8527	215625.9203;
	106	149	0.00083	0.00525	0.00868	250	250	250	0	0	1	-360	360	197478.8804	-45604.5592	17706.5290	1406683.2698;
	115	135	0.01589	0.0832	0.11439	266	266	266	0	0	1	-360	360	8.9148	-5.8423	-8.0445	10.1044;
	95	128	0.00217	0.01459	0.02575	197	197	197	0	0	1	-360	360	2.1827	3.9301	-1.6821	-0.5653;
	132	116	0.01773	0.11678	0.16361	250	250	250	0	0	1	-360	360	23.9830	179.7993	3.7427	1.0627;
	143	88	0.00593	0.04093	0.07215	341	341	341	0	0	1	-360	360	1.1476	3.6246	1.5923	15.2675;
	123	105	0.0039	0.02847	0.04498	317	317	317	0	0	1	-360	360	6349.3070	31905.5535	-3523.0131	-11310.8683;
	134	93	0.00816	0.04242	0.0612	314	314	314	0	0	1	-360	360	-220.4400	102.9898	897.4081	3411.6256;
	135	92	0.00816	0.04242	0.0612	314	314	314	0	0	1	-360	360	204.7115	311.5278	159.8406	1581.7768;
	93	90	0.00519	0.03839	0.05875	400	400	400	0	0	1	-360	360	661.2900	3484.0163	-226.2137	-270.2536;
	92	87	0.00213	0.01403	0.0226	250	250	250	0	0	1	-360	360	-13.2220	4170.8476	666.9397	134.4380;
	129	92	0.00463	0.02775	0.04612	267	267	267	0	0	1	-360	360	9.1664	-5.2658	321.2814	1984.5040;
	118	86	0.01122	0.07074	0.11571	180	180	180	0	0	1	-360	360	0.0154	0.0933	-0.0005	0.0000;
	125	133	0.00601	0.04147	0.07364	308	308	308	0	0	1	-360	360	-220.4596	670.7635	317.2679	-4.1432;
	106	83	0.00207	0.01279	0.02055	197	197	197	0	0	1	-360	360	-57366.0728	-15305.1740	103420.0238	299812.6522;
	101	105	0.00136	0.0099	0.01586	400	400	400	0	0	1	-360	360	-1638.4300	1379.0878	4556.2087	19859.0735;
	146	102	0.00058	0.00417	0.00684	341	341	341	0	0	1	-360	360	-5222.4069	16282.1799	7570.6933	600.8935;
	150	90	0.00085	0.00632	0.00931	457	457	457	0	0	1	-360	360	2.6322	0.2818	28.4970	231.1661;
	151	91	0.00085	0.00612	0.00964	457	457	457	0	0	1	-360	360	0.0499	0.8386	0.0576	-0.0653;
	117	91	0.00159	0.01112	0.01913	396	396	396	0	0	1	-360	360	0.0346	0.6282	0.0572	0.0136;
	142	119	0.00314	0.02159	0.03839	341	341	341	0	0	1	-360	360	-276.8631	3901.7130	826.9677	-121.0606;
	143	126	0.00455	0.03157	0.05531	231	231	231	0	0	1	-360	360	-0.5096	2.0608	1.1651	2.4855;
	119	99	0.00145	0.01008	0.01719	231	231	231	0	0	1	-360	360	-363.5549	430.8297	479.1355	372.5808;
	120	110	0.00384	0.02721	0.04517	231	231	231	0	0	1	-360	360	-0.0566	9.1267	1.0483	-2.1077;
	127	94	0.00777	0.04128	0.06391	197	197	197	0	0	1	-360	360	0.7121	3.4554	0.3651	2.2635;
	104	92	0.00446	0.03041	0.04867	180	180	180	0	0	1	-360	360	31.8974	-100.8863	207.1841	1729.6509;
	133	123	0.00589	0.03506	0.05235	267	267	267	0	0	1	-360	360	1975.1510	2030.2588	5586.5107	42941.7798;
	124	114	0.00316	0.02378	0.03527	231	231	231	0	0	1	-360	360	10543.2311	105311.4151	3322.7287	-1010.7851;
	132	93	0.00184	0.0126	0.0224	231	231	231	0	0	1	-360	360	4066.8174	-629.6734	-2613.8431	10577.4637;
	121	103	0.00171	0.00961	0.01424	250	250	250	0	0	1	-360	360	3978.3708	26075.9543	1266.6048	3398.5494;
	113	93	0.00341	0.02442	0.03997	317	317	317	0	0	1	-360	360	3.4292	16.8656	844.7894	6054.4688;
	133	92	0.00184	0.0126	0.02239	231	231	231	0	0	1	-360	360	1379.1076	-202.9844	-807.0555	4119.5929;
	98	112	0.0057	0.04149	0.06617	341	341	341	0	0	1	-360	360	487.1811	9463.1724	454.5598	-2627.7615;
	141	134	0.00461	0.02492	0.0356	266	266	266	0	0	1	-360	360	2.3556	1.4600	3.4008	29.6446;
	140	125	0.00215	0.01333	0.02211	250	250	250	0	0	1	-360	360	-56.2920	18.9580	425.2635	2268.3222;
	115	85	0.00079	0.00488	0.00726	137	137	137	0	0	1	-360	360	-56.6626	360.4708	107.9927	-43.4016;
	116	84	0.00079	0.00488	0.00724	137	137	137	0	0	1	-360	360	0.3157	1.9510	0.0031	0.0180;
	108	144	0.00241	0.02782	0.77066	1154	1154	1154	0	0	1	-360	360	1496.4234	-2787.0564	1401153.2899	16019438.6659;
	97	145	0.00213	0.02432	0.67744	1240	1240	1240	0	0	1	-360	360	-4110.6037	9880.5120	60730.0871	631379.3955;
	138	130	0.00091	0.0104	0.28989	838	838	838	0	0	1	-360	360	35111.6757	-36940.9312	83153.2910	1386379.6188;
	139	137	0.00312	0.03563	0.99107	831	831	831	0	0	1	-360	360	14.8947	35.7061	-12.3015	-7.1447;
	130	145	0.00092	0.01051	0.29293	838	838	838	0	0	1	-360	360	1555149.6747	1320457.5125	-1297608.9751	1617231.1664;
	198	177	0.01039	0.08983	0.11422	375	375	375	0	0	1	-360	360	1.3598	0.4679	-0.8641	3.7979;
	199	178	0.01039	0.08983	0.11422	375	375	375	0	0	1	-360	360	-0.1951	-0.0404	0.3334	1.2292;
	201	177	0.01455	0.0813	0.13279	267	267	267	0	0	1	-360	360	69.3178	438.3768	16.7345	40.1969;
	202	178	0.01455	0.0813	0.13279	267	267	267	0	0	1	-360	360	-1.3105	26.4853	5.6912	-2.1724;
	156	202	0.00519	0.03965	0.05836	317	317	317	0	0	1	-360	360	8.6193	-12.8931	-5.1365	39.4214;
	156	166	0.00083	0.00645	0.00951	317	317	317	0	0	1	-360	360	529.1060	684.3828	1205.7526	12796.9724;
	189	161	0.01105	0.08107	0.12824	341	341	341	0	0	1	-360	360	4727.3230	-1341.5366	-3630.1341	9310.3878;
	157	177	0.00597	0.04473	0.06735	317	317	317	0	0	1	-360	360	-0.7450	-0.5258	1.5024	6.1901;
	196	198	0.01736	0.10969	0.16268	287	287	287	0	0	1	-360	360	-0.0707	-0.0324	0.1151	0.3089;
	173	199	0.00938	0.06093	0.08934	339	339	339	0	0	1	-360	360	0.4993	1.7507	-0.2492	-0.1319;
	176	178	0.01246	0.09134	0.14349	400	400	400	0	0	1	-360	360	14.8196	211.7339	15.3304	7.9242;
	154	158	0.00514	0.03826	0.05933	231	231	231	0	0	1	-360	360	0.0000	0.0000	-0.0000	-0.0000;
	169	164	0.01062	0.0789	0.12085	317	317	317	0	0	1	-360	360	9.4701	-47.1305	85.2158	746.7052;
	175	205	0.00769	0.0569	0.08673	231	231	231	0	0	1	-360	360	6.9556	5.5092	-5.3787	6.1273;
	175	204	0.00225	0.01667	0.02541	286	286	286	0	0	1	-360	360	10.2502	-7.2172	-9.3318	14.0074;
	196	168	0.01851	0.1088	0.14435	250	250	250	0	0	1	-360	360	0.0586	0.0138	-0.0302	0.1517;
	200	195	0.00236	0.01411	0.02031	229	229	229	0	0	1	-360	360	10.2288	-20.0568	39.3164	316.2290;
	195	161	0.00355	0.02607	0.04096	341	341	341	0	0	1	-360	360	-463.5317	-2440.2639	4989.9364	35659.7026;
	196	191	0.013	0.07589	0.11484	267	267	267	0	0	1	-360	360	0.0110	0.0422	-0.0005	0.0190;
	195	174	0.00934	0.0539	0.08683	287	287	287	0	0	1	-360	360	12.9877	81.9861	0.3798	-5.0546;
	168	152	0.00698	0.0374	0.05463	314	314	314	0	0	1	-360	360	-3.8064	-5.1884	22.0604	102.8798;
	167	153	0.00436	0.03202	0.0503	400	400	400	0	0	1	-360	360	2.1081	-3.3463	30.8689	245.3266;
	188	168	0.0006	0.00351	0.00555	341	341	341	0	0	1	-360	360	17762.4904	104436.5998	202.5807	658.0261;
	189	167	0.0006	0.00351	0.00555	341	341	341	0	0	1	-360	360	11684.3344	67232.0328	-175.4536	94.2464;
	176	164	0.01058	0.07762	0.12203	231	231	231	0	0	1	-360	360	-185.9802	623.2254	424.1340	1118.9310;
	182	169	0.00469	0.03486	0.05338	317	317	317	0	0	1	-360	360	23.8548	81.2796	-9.3095	26.7640;
	170	162	0.00568	0.04012	0.07033	317	317	317	0	0	1	-360	360	27.1486	-6.3700	-6.6106	151.2069;
	193	162	0.00105	0.00733	0.01258	231	231	231	0	0	1	-360	360	38.0388	21.5796	90.9261	878.6783;
	194	182	0.00744	0.05397	0.09307	231	231	231	0	0	1	-360	360	-1.1423	-1.1321	6.5922	40.5581;
	202	155	0.00221	0.01618	0.02541	231	231	231	0	0	1	-360	360	19.3722	136.5020	-1.5889	-6.3355;
	203	201	0.00525	0.03837	0.06052	231	231	231	0	0	1	-360	360	-153.7135	7948.1703	1596.1985	2586.3439;
	206	198	0.00236	0.01746	0.02676	341	341	341	0	0	1	-360	360	-0.2347	2.0472	1.0001	3.6149;
	180	159	0.00274	0.02778	0.69846	717	717	717	0	0	1	-360	360	-0.3512	2.3407	0.5199	-0.6671;
	186	160	0.00171	0.01741	0.45456	717	717	717	0	0	1	-360	360	0.0005	0.0001	0.0014	0.0187;
	184	187	0.00136	0.01599	0.41965	1240	1240	1240	0	0	1	-360	360	3165.5107	34203.5116	-263.0242	-194.7536;
	197	172	0.00373	0.04344	1.172	831	831	831	0	0	1	-360	360	5.7779	45.1734	-1.1220	8.0017;
	214	222	0.02738	0.14254	0.20047	222	222	222	0	0	1	-360	360	5.3735	-4.5068	17.6234	122.3438;
	228	234	0.02709	0.15992	0.26125	197	197	197	0	0	1	-360	360	0.0856	0.1387	-0.0646	-0.0201;
	215	239	0.01909	0.11277	0.16673	197	197	197	0	0	1	-360	360	-2.7526	0.2807	4.0326	7.1854;
...
];

%%-----  OPF Data  -----%%
%% generator cost data
%	1	startup	shutdown	n	x1	y1	...	xn	yn
%	2	startup	shutdown	n	c(n-1)	...	c0
mpc.gencost = [
	2	0	0	3	0	158.61	0;
	2	0	0	3	0	158.61	0;
	2	0	0	3	0	107.03	0;
	2	0	0	3	0	107.03	0;
	2	0	0	3	0	107.03	0;
	2	0	0	3	0	107.03	0;
	2	0	0	3	0	107.03	0;
	2	0	0	3	0	107.03	0;
	2	0	0	3	0	107.03	0;
	2	0	0	3	0	107.03	0;
	2	0	0	3	0	107.03	0;
	2	0	0	3	0	107.03	0;
	2	0	0	3	0	107.03	0;
	2	0	0	3	0	143.52	0;
	2	0	0	3	0	143.52	0;
	2	0	0	3	0	143.52	0;
	2	0	0	3	0	143.52	0;
	2	0	0	3	0	143.52	0;
	2	0	0	3	0	143.52	0;
	2	0	0	3	0	143.52	0;
	2	0	0	3	0	143.52	0;
	2	0	0	3	0	148.16	0;
	2	0	0	3	0	148.16	0;
	2	0	0	3	0	148.16	0;
	2	0	0	3	0	148.16	0;
	2	0	0	3	0	148.16	0;
	2	0	0	3	0	148.16	0;
	2	0	0	3	0	148.16	0;
	2	0	0	3	0	134.04	0;
	2	0	0	3	0	134.04	0;
	2	0	0	3	0	134.04	0;
	2	0	0	3	0	134.04	0;
	2	0	0	3	0	134.04	0;
	2	0	0	3	0	126.62	0;
	2	0	0	3	0	126.62	0;
	2	0	0	3	0	0	0;
	2	0	0	3	0	0	0;
	2	0	0	3	0	0	0;
	2	0	0	3	0	130.49	0;
	2	0	0	3	0	130.49	0;
	2	0	0	3	0	132.33	0;
	2	0	0	3	0	132.33	0;
	2	0	0	3	0	136.59	0;
	2	0	0	3	0	136.59	0;
	2	0	0	3	0	139.96	0;
	2	0	0	3	0	128.21	0;
	2	0	0	3	0	128.21	0;
	2	0	0	3	0	128.21	0;
	2	0	0	3	0	128.21	0;
	2	0	0	3	0	128.21	0;
	2	0	0	3	0	137.4	0;
	2	0	0	3	0	137.4	0;
	2	0	0	3	0	137.4	0;
	2	0	0	3	0	137.4	0;
	2	0	0	3	0	129.99	0;
	2	0	0	3	0	129.99	0;
	2	0	0	3	0	129.99	0;
	2	0	0	3	0	135.6	0;
	2	0	0	3	0	163.16	0;
	2	0	0	3	0	163.16	0;
	2	0	0	3	0	163.16	0;
	2	0	0	3	0	163.16	0;
	2	0	0	3	0	163.16	0;
	2	0	0	3	0	163.16	0;
	2	0	0	3	0	163.16	0;
	2	0	0	3	0	139.01	0;
	2	0	0	3	0	139.01	0;
	2	0	0	3	0	139.01	0;
	2	0	0	3	0	139.01	0;
	2	0	0	3	0	139.01	0;
	2	0	0	3	0	139.01	0;
	2	0	0	3	0	139.01	0;
	2	0	0	3	0	139.01	0;
	2	0	0	3	0	125.48	0;
	2	0	0	3	0	125.48	0;
	2	0	0	3	0	125.48	0;
	2	0	0	3	0	125.48	0;
	2	0	0	3	0	125.48	0;
	2	0	0	3	0	137.4	0;
	2	0	0	3	0	137.4	0;
	2	0	0	3	0	137.4	0;
	2	0	0	3	0	137.4	0;
	2	0	0	3	0	137.4	0;
	2	0	0	3	0	0	0;
	2	0	0	3	0	0	0;
	2	0	0	3	0	0	0;
	2	0	0	3	0	0	0;
	2	0	0	3	0	0	0;
	2	0	0	3	0	0	0;
	2	0	0	3	0	0	0;
	2	0	0	3	0	0	0;
	2	0	0	3	0	0	0;
	2	0	0	3	0	0	0;
	2	0	0	3	0	0	0;
	2	0	0	3	0	0	0;
	2	0	0	3	0	0	0;
	2	0	0	3	0	107.03	0;
	2	0	0	3	0	0	0;
	2	0	0	3	0	0	0;
	2	0	0	3	0	0	0;
	2	0	0	3	0	0	0;
	2	0	0	3	0	0	0;
	2	0	0	3	0	0	0;
	2	0	0	3	0	0	0;
	2	0	0	3	0	0	0;
	2	0	0	3	0	0	0;
	2	0	0	3	0	0	0;
	2	0	0	3	0	0	0;
	2	0	0	3	0	0	0;
	2	0	0	3	0	0	0;
	2	0	0	3	0	0	0;
	2	0	0	3	0	0	0;
	2	0	0	3	0	0	0;
	2	0	0	3	0	0	0;
	2	0	0	3	0	0	0;
	2	0	0	3	0	0	0;
	2	0	0	3	0	0	0;
	2	0	0	3	0	0	0;
	2	0	0	3	0	0	0;
	2	0	0	3	0	0	0;
	2	0	0	3	0	0	0;
	2	0	0	3	0	0	0;
	2	0	0	3	0	158.61	0;
	2	0	0	3	0	158.61	0;
	2	0	0	3	0	158.61	0;
	2	0	0	3	0	0	0;
	2	0	0	3	0	0	0;
	2	0	0	3	0	0	0;
	2	0	0	3	0	0	0;
	2	0	0	3	0	0	0;
	2	0	0	3	0	0	0;
	2	0	0	3	0	0	0;
	2	0	0	3	0	0	0;
	2	0	0	3	0	0	0;
	2	0	0	3	0	0	0;
	2	0	0	3	0	0	0;
	2	0	0	3	0	0	0;
	2	0	0	3	0	0	0;
	2	0	0	3	0	0	0;
	2	0	0	3	0	0	0;
	2	0	0	3	0	0	0;
	2	0	0	3	0	0	0;
	2	0	0	3	0	0	0;
	2	0	0	3	0	0	0;
	2	0	0	3	0	0	0;
	2	0	0	3	0	0	0;
	2	0	0	3	0	0	0;
	2	0	0	3	0	0	0;
	2	0	0	3	0	0	0;
	2	0	0	3	0	0	0;
	2	0	0	3	0	0	0;
	2	0	0	3	0	0	0;
	2	0	0	3	0	0	0;
	2	0	0	3	0	0	0;
	2	0	0	3	0	0	0;
	2	0	0	3	0	0	0;
	2	0	0	3	0	0	0;
	2	0	0	3	0	0	0;
	2	0	0	3	0	0	0;
	2	0	0	3	0	0	0;
	2	0	0	3	0	0	0;
	2	0	0	3	0	0	0;
	2	0	0	3	0	0	0;
	2	0	0	3	0	0	0;
	2	0	0	3	0	0	0;
	2	0	0	3	0	0	0;
	2	0	0	3	0	0	0;
	2	0	0	3	0	143.52	0;
	2	0	0	3	0	143.52	0;
	2	0	0	3	0	0	0;
	2	0	0	3	0	0	0;
	2	0	0	3	0	0	0;
	2	0	0	3	0	0	0;
	2	0	0	3	0	0	0;
	2	0	0	3	0	0	0;
	2	0	0	3	0	0	0;
	2	0	0	3	0	0	0;
	2	0	0	3	0	0	0;
	2	0	0	3	0	0	0;
	2	0	0	3	0	0	0;
	2	0	0	3	0	148.16	0;
	2	0	0	3	0	0	0;
	2	0	0	3	0	0	0;
	2	0	0	3	0	0	0;
	2	0	0	3	0	0	0;
	2	0	0	3	0	0	0;
	2	0	0	3	0	0	0;
	2	0	0	3	0	0	0;
	2	0	0	3	0	0	0;
	2	0	0	3	0	0	0;
	2	0	0	3	0	0	0;
	2	0	0	3	0	0	0;
	2	0	0	3	0	0	0;
	2	0	0	3	0	157	0;
	2	0	0	3	0	157	0;
	2	0	0	3	0	157	0;
	2	0	0	3	0	157	0;
	2	0	0	3	0	0	0;
	2	0	0	3	0	0	0;
	2	0	0	3	0	0	0;
...
];
